CRYSTAL
PRIMVEC
   11.320000    0.000000    0.000000
    0.000000   11.320000    0.000000
    0.000000    0.000000   11.320000
PRIMCOORD
    96 1
   14    2.530016    5.459388   10.395136
   14    9.420872    7.606187    4.949203
   14    6.802241    7.201008    9.655061
   14    9.688302    2.110873    6.514426
   14    8.785167    9.816694    1.172982
   14    2.133159   10.338962    4.022384
   14    6.985465    0.021119    3.108364
   14    4.589193    4.357408    8.428374
   14    2.037730    6.443051    1.916216
   14    9.296704    4.496530    4.518706
   14    3.599446    1.224003   10.996987
   14    6.219151    8.019498    1.218015
   14    7.131169    4.179755    9.967381
   14    6.915394    9.271146    5.374669
   14    7.373795    0.253259    7.304222
   14    0.452473    3.803756    2.831545
   14    6.710746    2.862478    3.911710
   14    8.676233    9.803564    9.419215
   14    4.718172    6.010968    2.831409
   14   10.877886    8.597859    7.521114
   14    0.992621    2.758663   -0.036960
   14    2.510831    9.492499    6.903135
   14    4.454864   10.556874    1.816568
   14    4.567901   -0.065863    8.261268
   14    5.007837    8.465578    7.680329
   14    5.379267    3.530964    1.141624
   14    0.876363    1.684149    5.159456
   14   10.048386    3.245102    9.312900
   14    0.415150    5.678223    8.340575
   14   11.228842    8.643956    2.580819
   14    4.722559    4.452536    5.481578
   14    2.267852    3.664237    6.811519
    8    1.546608    2.251975    6.527834
    8   10.269445    2.309119    8.011254
    8   10.219266    7.875806    3.576091
    8    1.413171    5.075560    2.534626
    8    2.637411    6.354199    0.407493
    8    3.323131    3.385603    8.040891
    8    9.387157    5.994211    5.138056
    8    5.062303    9.128080    1.391443
    8    7.502390    5.735059    9.635150
    8    8.302005   10.997095    2.200428
    8    2.526375    9.404947    5.285590
    8    7.935024   11.092966    8.753246
    8    7.312285    1.341632    4.010416
    8    3.398049   10.405235    3.026395
    8   10.599860    4.750073    9.035671
    8    4.198344    0.882768    9.519237
    8    3.406332    8.240141    7.470643
    8    3.127848    4.107065    5.492931
    8    0.907723    2.899104    4.088815
    8    5.681518    0.247963    2.165930
    8    5.936769    3.636954    8.985721
    8   10.306721    9.368184    1.472824
    8    7.695717   10.308800    6.336196
    8    1.768653    0.497859    4.556410
    8    4.407319    2.484402    0.349747
    8    5.992773    6.894591    2.361621
    8   10.136510    8.536418    6.076163
    8    3.315943    6.849525    2.846310
    8   10.059195    9.462302    8.629469
    8    0.804071    9.766343    3.310914
    8    5.779320    0.639509    7.395955
    8    7.865492    8.055481    4.907329
    8    9.664307    3.555743    5.785625
    8    7.734879    8.583572    1.358359
    8    2.001588    1.528217   10.972316
    8    5.048188    5.016457    6.987038
    8    0.895874    7.579222    1.877039
    8    6.073382    2.881070    2.434067
    8    5.725698    7.237395    8.434877
    8    0.993563    9.352606    7.436384
    8    7.821295    4.043634    4.014260
    8    8.841583   10.304414   10.951642
    8   10.922171    2.558230   10.484729
    8    1.810224    4.069378   10.803096
    8    8.479247    3.307773    9.744852
    8    1.538111    6.218818    9.373428
    8    6.033042    7.378457   11.064498
    8    0.536208    2.850331    1.520932
    8   10.998426    7.019893    7.858163
    8    5.630007    8.699487    6.185596
    8    7.863925    8.392371    9.399828
    8    6.506437   10.089145    4.038123
    8    3.710690   11.185357    0.537486
    8    3.215950   10.905013    7.390024
    8    5.599361    3.124403    5.084790
    8   10.280300    4.341117    3.221129
    8    5.041170    5.566268    4.355189
    8    6.578932    4.039829    0.168892
    8    1.178370    4.829682    7.163685
    8    4.515826    4.772168    1.767758
    8   10.690389    1.182167    5.598018
    8    5.185492    9.779909    8.661447
    8    8.189454    1.518866    6.701724
    8    3.990487    5.269957    9.664609
