CRYSTAL
 PRIMVEC
    4.20    0.00    0.00
    0.00    4.20    0.00
    0.00    0.00    4.20
 PRIMCOORD
    8 1
   12    0.00    0.00    0.00
   12    2.10    2.10    0.00
   12    2.10    0.00    2.10
   12    0.00    2.10    2.10
    8    2.10    2.10    2.10
    8    0.00    0.00    2.10
    8    0.00    2.10    0.00
    8    2.10    0.00    0.00